src/examples/case5/br4/results/res_branch_1.csv
branch,from_bus,to_bus,X,B,G,Bfr,Bto,p_from,p_to,q_from,q_to,p_loss,q_loss,s_from,s_to,rate_a,ang_deg,angmin,angmax
7,4,10,0.0297,-33.33666700003334,3.3336667000033335,0.00337,0.00337,-2.385690043428242,2.3999761779309,0.12413087897518509,0.010695931958963765,0.014286134502657699,0.13482681093414886,2.3889172146451205,2.400000011999225,2.4,-3.425956692694034,-29.999999999999996,29.999999999999996
2,1,4,0.0304,-32.56904637832204,3.2569046378322044,0.00329,0.00329,1.6005004766909405,-1.5938982248804405,0.25344528479333944,-0.19530772758289894,0.006602251810500004,0.058137557210440505,1.6204432382135157,1.605819622414241,4.26,2.2896683034635568,-29.999999999999996,29.999999999999996
3,1,10,0.0064,-154.7029702970297,15.470297029702971,0.01563,0.01563,-3.5921971163330486,3.600023882055366,1.3571687716473004,-1.316530185391545,0.00782676572231722,0.04063858625575545,3.840024374574478,3.833200187886889,4.26,-1.1362883892304774,-29.999999999999996,29.999999999999996
5,3,4,0.0297,-33.33666700003334,3.3336667000033335,0.00337,0.00337,-0.16429975759253249,0.17368413421749831,-1.838324342529016,1.924550167240595,0.009384376624965829,0.0862258247115788,1.845651862806121,1.932371476891719,4.26,1.028898965377781,-29.999999999999996,29.999999999999996
6,3,4,0.03274425,-30.23733968256992,3.023733968256992,0.0033860571712018145,0.0033860571712018145,0.20264325539334904,-0.19409587590630842,1.8303049217704188,-1.75326898815337,0.008547379487040624,0.07703593361704875,1.8414886357546258,1.7639799754714278,4.26,1.028898965377781,-29.999999999999996,29.999999999999996
1,1,2,0.0281,-35.234840209999646,3.5234840209999647,0.00356,0.00356,3.9998414719290305,-3.962685116952012,-0.03561403406912162,0.39859860432605115,0.03715635497701841,0.36298457025692954,4.000000019998258,3.9826817828548213,4.0,5.356641715162859,-29.999999999999996,29.999999999999996
